# created with PyMOL 3.1.3.1
@<TRIPOS>MOLECULE
7ckz
11 11 1                 
SMALL
USER_CHARGES
@<TRIPOS>ATOM
1	  C1	3.799	-2.062	-21.811	C.2	1	LDP502	0.000	
2	  N1	1.384	-4.796	-21.363	N.3	1	LDP502	0.000	
3	  O1	6.096	0.537	-23.007	O.3	1	LDP502	0.000	
4	  C2	4.556	-1.285	-22.666	C.2	1	LDP502	0.000	
5	  O2	6.110	1.035	-20.285	O.3	1	LDP502	0.000	
6	  C3	5.324	-0.256	-22.155	C.2	1	LDP502	0.000	
7	  C4	5.333	-0.006	-20.798	C.2	1	LDP502	0.000	
8	  C5	4.575	-0.785	-19.946	C.2	1	LDP502	0.000	
9	  C6	3.808	-1.814	-20.453	C.2	1	LDP502	0.000	
10	  C7	2.946	-3.202	-22.351	C.3	1	LDP502	0.000	
11	  C8	2.736	-4.276	-21.291	C.3	1	LDP502	0.000	
@<TRIPOS>BOND
1 1 4 ar
2 1 9 ar
3 4 6 ar
4 3 6 1
5 5 7 1
6 6 7 ar
7 7 8 ar
8 8 9 ar
9 1 10 1
10 10 11 1
11 2 11 1
@<TRIPOS>SUBSTRUCTURE
1	LDP502	1	GROUP	1 R	LDP
