# created with PyMOL 3.1.3.1
@<TRIPOS>MOLECULE
7e2y
13 14 1                 
SMALL
USER_CHARGES
@<TRIPOS>ATOM
1	  CA	100.117	112.980	108.423	C.3	1	SRO501	0.000	
2	  CB	101.436	113.077	109.187	C.3	1	SRO501	0.000	
3	  CG	102.540	113.587	108.263	C.2	1	SRO501	0.000	
4	 CD1	102.984	112.926	107.146	C.2	1	SRO501	0.000	
5	 CD2	103.283	114.883	108.469	C.2	1	SRO501	0.000	
6	 CE2	104.185	114.898	107.368	C.2	1	SRO501	0.000	
7	 CE3	103.286	115.917	109.358	C.2	1	SRO501	0.000	
8	 NE1	103.917	113.736	106.694	N.pl3	1	SRO501	0.000	
9	 CZ2	105.060	115.910	107.161	C.2	1	SRO501	0.000	
10	 CZ3	104.171	117.010	109.211	C.2	1	SRO501	0.000	
11	  NZ	99.177	112.175	109.181	N.3	1	SRO501	0.000	
12	 CH2	105.105	117.086	108.124	C.2	1	SRO501	0.000	
13	  OH	104.135	118.047	110.152	O.3	1	SRO501	0.000	
@<TRIPOS>BOND
1 1 11 1
2 1 2 1
3 2 3 1
4 3 5 ar
5 3 4 ar
6 5 7 ar
7 5 6 ar
8 6 8 ar
9 4 8 ar
10 6 9 ar
11 7 10 ar
12 10 12 ar
13 9 12 ar
14 10 13 1
@<TRIPOS>SUBSTRUCTURE
1	SRO501	1	GROUP	1 R	SRO
